LAMMPS (27 Jun 2024)
package omp 0
using multi-threaded neighbor list subroutines
# Script to create a shear deformationgiven a data file

units lj
dimension 3
boundary p p p

# Styles of atoms and that stuff
atom_style bond
bond_style zero nocoeff
#pair_style hybrid/overlay/omp zero 0.0 lj/cut/omp 1.12 table/omp linear 5000000 threebody/table
pair_style hybrid/overlay/omp zero 0.0 table/omp linear 1000 table/omp linear 5000000 threebody/table
newton on

read_data data.hydrogel extra/bond/per/atom 4 extra/special/per/atom 5
Reading data file ...
  orthogonal box = (-9.998647 -9.998647 -9.998647) to (9.998647 9.998647 9.998647)
  reading atoms ...
  4560 atoms
  reading velocities ...
  4560 velocities
  scanning bonds ...
  orthogonal box = (-9.998647 -9.998647 -9.998647) to (9.998647 9.998647 9.998647)
  reading bonds ...
  3060 bonds
Finding 1-2 1-3 1-4 neighbors ...
     4 = max # of 1-2 neighbors
     3 = max # of 1-3 neighbors
     3 = max # of 1-4 neighbors
     9 = max # of special neighbors

change_box all triclinic
Changing box ...
  triclinic box = (-9.998647 -9.998647 -9.998647) to (9.998647 9.998647 9.998647) with tilt (0 0 0)

# Coefficients
include potential.in
bond_coeff * nocoeff
pair_coeff 1 3 zero
pair_coeff 1 4 zero
pair_coeff 2 3 zero
pair_coeff 2 4 zero
pair_coeff 3 3 zero
pair_coeff 1 1 table/omp 1 sysFiles/wcaTab.table POT 1.12
Reading pair table potential file sysFiles/wcaTab.table with DATE: 2024-09-27
pair_coeff 2 2 table/omp 1 sysFiles/wcaTab.table POT 1.12
Reading pair table potential file sysFiles/wcaTab.table with DATE: 2024-09-27
pair_coeff 1 2 table/omp 1 sysFiles/wcaTab.table POT 1.12
Reading pair table potential file sysFiles/wcaTab.table with DATE: 2024-09-27
#pair_coeff 1 1 lj/cut/omp 1.0 1.0 1.12
#pair_coeff 2 2 lj/cut/omp 1.0 1.0 1.12
#pair_coeff 1 2 lj/cut/omp 1.0 1.0 1.12
#pair_modify shift yes
pair_coeff 3 4 table/omp 2 sysFiles/pachTab.table POT 0.6 #0.75
Reading pair table potential file sysFiles/pachTab.table with DATE: 2024-07-08
pair_coeff 4 4 table/omp 2 sysFiles/pachTab.table POT 0.6 #0.75
Reading pair table potential file sysFiles/pachTab.table with DATE: 2024-07-08
pair_coeff * * threebody/table swapMech.3b NULL NULL PA PB
#pair_coeff 3 4 threebody/table swapMech.3b NULL NULL PA PB
#pair_coeff 4 4 threebody/table swapMech.3b NULL NULL PB PB

# Molecules
include molDeform.in
molecule CL sysFiles/molecule.patchy.CL
Read molecule template CL:
# Patchy Cross-Linker
  1 molecules
  0 fragments
  5 atoms with max type 3
  4 bonds with max type 1
  0 angles with max type 0
  0 dihedrals with max type 0
  0 impropers with max type 0
molecule MO sysFiles/molecule.patchy.MO
Read molecule template MO:
# Patchy Monomer
  1 molecules
  0 fragments
  3 atoms with max type 4
  2 bonds with max type 1
  0 angles with max type 0
  0 dihedrals with max type 0
  0 impropers with max type 0

# Create patchy particles
group CrossLinker type 1 3
150 atoms in group CrossLinker
group Monomer type 2 4
4410 atoms in group Monomer
group Patches type 3 4
3060 atoms in group Patches
group CL type 1
30 atoms in group CL
group MO type 2
1470 atoms in group MO
group PA type 3
120 atoms in group PA
group CM type 1 2
1500 atoms in group CM
  30 rigid bodies with 150 atoms
  0.46400431 = max distance from body owner to body atom
  1470 rigid bodies with 4410 atoms
  0.5 = max distance from body owner to body atom

# Neighbor list
neighbor 1.8 bin # extra-distance style
neigh_modify exclude molecule/intra CrossLinker
neigh_modify exclude molecule/intra Monomer

fix BrDy all rigid/nve/small molecule langevin 0.05 0.05 0.1 12345
  1500 rigid bodies with 4560 atoms
  0.5 = max distance from body owner to body atom
fix_modify BrDy virial no

thermo 10000

# COMPUTES

# Compute global kinetic and potential energy and temperature
compute t all temp
compute tCM CM temp
compute ep all pe
compute ek all ke
compute ekCM CM ke
compute stressVirial all pressure t ke pair
compute wcaPair all pair table/omp 1 epair
compute patchPair all pair table/omp 2 epair
compute swapPair all pair threebody/table epair
compute disc CM displace/atom
compute daux CM chunk/atom type pbc yes
compute dis CM reduce/chunk daux sum c_disc[4]
#compute disM CM reduce/chunk 2 sum c_disc[4]

# DUMPS and FIXES

# Save atom positions
dump dumpID all atom 500 info/dumps/shear/patchyParticles_shear.*.dumpf
dump_modify dumpID pbc yes # remap atoms via periodic boundary conditions

# Save global energies and temperature
group Energy empty
0 atoms in group Energy
group PairE1 empty
0 atoms in group PairE1
group PairE2 empty
0 atoms in group PairE2
group PairE3 empty
0 atoms in group PairE3

fix fixEng Energy ave/time 1 10 10 c_t c_ep c_ek c_tCM file info/energy_shear.fixf

fix fixwca PairE1 ave/time 1 10 10 c_wcaPair file info/wcaPair_shear.fixf
fix fixpatch PairE2 ave/time 1 10 10 c_patchPair file info/patchPair_shear.fixf
fix fixswap PairE3 ave/time 1 10 10 c_swapPair file info/swapPair_shear.fixf

# Save Atom displacement
group Displ empty
0 atoms in group Displ
fix fixDispl Displ ave/time 1 1000 1000 c_dis[1] c_dis[2] c_dis[3] c_dis[4] file info/cmdisplacement_shear.fixf

# Save Stress tensor
group Stress empty
0 atoms in group Stress
fix fixStress5 Stress ave/time 1 1000 1000 c_stressVirial[*] file info/stressVirial_shear.fixf

# RUN SIMULATION

# Introduce deformation
fix shear all deform 1 xy erate 0.02 remap x flip yes

# Run deformation
timestep 0.001
run 600000

CITE-CITE-CITE-CITE-CITE-CITE-CITE-CITE-CITE-CITE-CITE-CITE-CITE

Your simulation uses code contributions which should be cited:

- Type Label Framework: https://doi.org/10.1021/acs.jpcb.3c08419

@Article{Gissinger24,
 author = {Jacob R. Gissinger, Ilia Nikiforov, Yaser Afshar, Brendon Waters, Moon-ki Choi, Daniel S. Karls, Alexander Stukowski, Wonpil Im, Hendrik Heinz, Axel Kohlmeyer, and Ellad B. Tadmor},
 title = {Type Label Framework for Bonded Force Fields in LAMMPS},
 journal = {J. Phys. Chem. B},
 year =    2024,
 volume =  128,
 number =  13,
 pages =   {3282â€“-3297}
}

CITE-CITE-CITE-CITE-CITE-CITE-CITE-CITE-CITE-CITE-CITE-CITE-CITE

Hybrid pair style last /omp style table/omp
Last active /omp style is pair_style table/omp
Step          Temp          E_pair         E_mol          TotEng         Press          Volume
0   0.27619958    -0.25618282     0             -0.21448032     0.044027355    7996.7532
Averages over the last 31 of 61 rows, steps 300000 to 600000:
Temp E_pair E_mol TotEng Press Volume
0.277335 -0.248903 0 -0.207029 -2.85237e+07 7996.75
Loop time of 383.86 on 8 procs for 600000 steps with 4560 atoms

# Stop deformation
unfix shear

# Relax time
run 150000
Hybrid pair style last /omp style table/omp
Last active /omp style is pair_style table/omp
Step          Temp          E_pair         E_mol          TotEng         Press
600000   0.27888462    -0.24808753     0             -0.20597962    -0.019288155
Averages over the last 8 of 16 rows, steps 680000 to 750000:
Temp E_pair E_mol TotEng Press
0.276001 -0.252556 0 -0.210884 -1.548e+06
Loop time of 94.2544 on 8 procs for 150000 steps with 4560 atoms

# Introduce deformation
fix shear all deform 1 xy erate 0.02 remap x flip yes

# Re-run deformation
timestep 0.001
run 600000
Hybrid pair style last /omp style table/omp
Last active /omp style is pair_style table/omp
Step          Temp          E_pair         E_mol          TotEng         Press          Volume
750000   0.27797028    -0.25162981     0             -0.20965995     0.00035453188  7996.7532
Averages over the last 31 of 61 rows, steps 1050000 to 1350000:
Temp E_pair E_mol TotEng Press Volume
0.277646 -0.249553 0 -0.207632 -2.7153e+07 7996.75
Loop time of 393.458 on 8 procs for 600000 steps with 4560 atoms

# Stop deformation
unfix shear

# Relax time
run 300000
Hybrid pair style last /omp style table/omp
Last active /omp style is pair_style table/omp
Step          Temp          E_pair         E_mol          TotEng         Press
1350000   0.27260762    -0.24624331     0             -0.20508315    -0.013932525
Averages over the last 16 of 31 rows, steps 1500000 to 1650000:
Temp E_pair E_mol TotEng Press
0.276133 -0.258241 0 -0.216549 -6.12037e+06
Loop time of 183.591 on 8 procs for 300000 steps with 4560 atoms

# Introduce deformation
fix shear all deform 1 xy erate 0.02 remap x flip yes

# Re-run deformation
timestep 0.001
run 600000
Hybrid pair style last /omp style table/omp
Last active /omp style is pair_style table/omp
Step          Temp          E_pair         E_mol          TotEng         Press          Volume
1650000   0.2746416     -0.25579141     0             -0.21432414    -0.015363765    7996.7532
Averages over the last 31 of 61 rows, steps 1950000 to 2250000:
Temp E_pair E_mol TotEng Press Volume
0.277416 -0.243957 0 -0.202071 -1.02719e+07 7996.75
Loop time of 381.289 on 8 procs for 600000 steps with 4560 atoms

# Stop deformation
unfix shear

# Relax time
run 600000
Hybrid pair style last /omp style table/omp
Last active /omp style is pair_style table/omp
Step          Temp          E_pair         E_mol          TotEng         Press
2250000   0.27001252    -0.24665256     0             -0.20588423    -0.039472472
Averages over the last 31 of 61 rows, steps 2550000 to 2850000:
Temp E_pair E_mol TotEng Press
0.276292 -0.256159 0 -0.214443 -2.14754e+07
Loop time of 361.844 on 8 procs for 600000 steps with 4560 atoms

# Introduce deformation
fix shear all deform 1 xy erate 0.02 remap x flip yes

# Re-run deformation
timestep 0.001
run 600000
Hybrid pair style last /omp style table/omp
Last active /omp style is pair_style table/omp
Step          Temp          E_pair         E_mol          TotEng         Press          Volume
2850000   0.27925956    -0.25402829     0             -0.21186377     0.050310771    7996.7532
Averages over the last 31 of 61 rows, steps 3150000 to 3450000:
Temp E_pair E_mol TotEng Press Volume
0.278176 -0.2448 0 -0.202799 -4.89855e+07 7996.75
Loop time of 374.718 on 8 procs for 600000 steps with 4560 atoms
