LAMMPS (27 Jun 2024)
package omp 0
using multi-threaded neighbor list subroutines
# Script to create a shear deformationgiven a data file

units lj
dimension 3
boundary p p p

# Styles of atoms and that stuff
atom_style bond
bond_style zero nocoeff
#pair_style hybrid/overlay/omp zero 0.0 lj/cut/omp 1.12 table/omp linear 5000000 threebody/table
pair_style hybrid/overlay/omp zero 0.0 table/omp linear 1000 table/omp linear 5000000 threebody/table
newton on

read_data data.hydrogel extra/bond/per/atom 4 extra/special/per/atom 5
Reading data file ...
  orthogonal box = (-9.99857 -9.99857 -9.99857) to (9.99857 9.99857 9.99857)
  reading atoms ...
  4590 atoms
  reading velocities ...
  4590 velocities
  scanning bonds ...
  orthogonal box = (-9.99857 -9.99857 -9.99857) to (9.99857 9.99857 9.99857)
  reading bonds ...
  3090 bonds
Finding 1-2 1-3 1-4 neighbors ...
     4 = max # of 1-2 neighbors
     3 = max # of 1-3 neighbors
     3 = max # of 1-4 neighbors
     9 = max # of special neighbors

change_box all triclinic
Changing box ...
  triclinic box = (-9.99857 -9.99857 -9.99857) to (9.99857 9.99857 9.99857) with tilt (0 0 0)

# Coefficients
include potential.in
bond_coeff * nocoeff
pair_coeff 1 3 zero
pair_coeff 1 4 zero
pair_coeff 2 3 zero
pair_coeff 2 4 zero
pair_coeff 3 3 zero
pair_coeff 1 1 table/omp 1 sysFiles/wcaTab.table POT 1.12
Reading pair table potential file sysFiles/wcaTab.table with DATE: 2024-09-27
pair_coeff 2 2 table/omp 1 sysFiles/wcaTab.table POT 1.12
Reading pair table potential file sysFiles/wcaTab.table with DATE: 2024-09-27
pair_coeff 1 2 table/omp 1 sysFiles/wcaTab.table POT 1.12
Reading pair table potential file sysFiles/wcaTab.table with DATE: 2024-09-27
#pair_coeff 1 1 lj/cut/omp 1.0 1.0 1.12
#pair_coeff 2 2 lj/cut/omp 1.0 1.0 1.12
#pair_coeff 1 2 lj/cut/omp 1.0 1.0 1.12
#pair_modify shift yes
pair_coeff 3 4 table/omp 2 sysFiles/pachTab.table POT 0.6 #0.75
Reading pair table potential file sysFiles/pachTab.table with DATE: 2024-07-08
pair_coeff 4 4 table/omp 2 sysFiles/pachTab.table POT 0.6 #0.75
Reading pair table potential file sysFiles/pachTab.table with DATE: 2024-07-08
pair_coeff * * threebody/table swapMech.3b NULL NULL PA PB
#pair_coeff 3 4 threebody/table swapMech.3b NULL NULL PA PB
#pair_coeff 4 4 threebody/table swapMech.3b NULL NULL PB PB

# Molecules
include molDeform.in
molecule CL sysFiles/molecule.patchy.CL
Read molecule template CL:
# Patchy Cross-Linker
  1 molecules
  0 fragments
  5 atoms with max type 3
  4 bonds with max type 1
  0 angles with max type 0
  0 dihedrals with max type 0
  0 impropers with max type 0
molecule MO sysFiles/molecule.patchy.MO
Read molecule template MO:
# Patchy Monomer
  1 molecules
  0 fragments
  3 atoms with max type 4
  2 bonds with max type 1
  0 angles with max type 0
  0 dihedrals with max type 0
  0 impropers with max type 0

# Create patchy particles
group CrossLinker type 1 3
225 atoms in group CrossLinker
group Monomer type 2 4
4365 atoms in group Monomer
group Patches type 3 4
3090 atoms in group Patches
group CL type 1
45 atoms in group CL
group MO type 2
1455 atoms in group MO
group PA type 3
180 atoms in group PA
group CM type 1 2
1500 atoms in group CM
  45 rigid bodies with 225 atoms
  0.46400431 = max distance from body owner to body atom
  1455 rigid bodies with 4365 atoms
  0.5 = max distance from body owner to body atom

# Neighbor list
neighbor 1.8 bin # extra-distance style
neigh_modify exclude molecule/intra CrossLinker
neigh_modify exclude molecule/intra Monomer

fix BrDy all rigid/nve/small molecule langevin 0.05 0.05 0.1 12345 # Brownian Dynamics: langevin + nve
  1500 rigid bodies with 4590 atoms
  0.5 = max distance from body owner to body atom
fix_modify BrDy virial no

thermo 10000

# Compute global kinetic and potential energy and temperature
compute t all temp
compute tCM CM temp
compute ep all pe
compute ek all ke
compute stressVirial all pressure t ke pair
variable tilt equal v_shear_rate*step*dt
compute wcaPair all pair table/omp 1 epair
compute patchPair all pair table/omp 2 epair
compute swapPair all pair threebody/table epair

#variable Nstep equal step

# DUMPS and FIXES

# Save atom positions
dump dumpID all atom 500 info/dumps/shear/patchyParticles_shear.*.dumpf
dump_modify dumpID pbc yes # remap atoms via periodic boundary conditions

# Save global energies and temperature
group Energy empty
0 atoms in group Energy
group PairE1 empty
0 atoms in group PairE1
group PairE2 empty
0 atoms in group PairE2
group PairE3 empty
0 atoms in group PairE3

fix fixEng Energy ave/time 1 10 10 c_tCM c_ep c_ek c_t file info/energy_shear.fixf

fix fixwca PairE1 ave/time 1 10 10 c_wcaPair file info/wcaPair_shear.fixf
fix fixpatch PairE2 ave/time 1 10 10 c_patchPair file info/patchPair_shear.fixf
fix fixswap PairE3 ave/time 1 10 10 c_swapPair file info/swapPair_shear.fixf

# Save Stress tensor
group Stress empty
0 atoms in group Stress
fix fixStress5 Stress ave/time 1 1000 1000 v_tilt c_stressVirial[*] file info/stressVirial_shear.fixf

# RUN SIMULATION

# Introduce deformation
fix shear all deform 1 xy erate 0.02 remap x flip yes

# Run deformation
timestep 0.001
run 600000

CITE-CITE-CITE-CITE-CITE-CITE-CITE-CITE-CITE-CITE-CITE-CITE-CITE

Your simulation uses code contributions which should be cited:

- Type Label Framework: https://doi.org/10.1021/acs.jpcb.3c08419

@Article{Gissinger24,
 author = {Jacob R. Gissinger, Ilia Nikiforov, Yaser Afshar, Brendon Waters, Moon-ki Choi, Daniel S. Karls, Alexander Stukowski, Wonpil Im, Hendrik Heinz, Axel Kohlmeyer, and Ellad B. Tadmor},
 title = {Type Label Framework for Bonded Force Fields in LAMMPS},
 journal = {J. Phys. Chem. B},
 year =    2024,
 volume =  128,
 number =  13,
 pages =   {3282â€“-3297}
}

CITE-CITE-CITE-CITE-CITE-CITE-CITE-CITE-CITE-CITE-CITE-CITE-CITE

Hybrid pair style last /omp style table/omp
Last active /omp style is pair_style table/omp
Step          Temp          E_pair         E_mol          TotEng         Press          Volume
0   0.28659299    -0.26528561     0             -0.22416982    -0.013584531    7996.5685
Averages over the last 31 of 61 rows, steps 300000 to 600000:
Temp E_pair E_mol TotEng Press Volume
0.292215 -0.246873 0 -0.20495 -2.82115e+07 7996.57
Loop time of 393.538 on 8 procs for 600000 steps with 4590 atoms

# Stop deformation
unfix shear

# Relax time
run 50000
Hybrid pair style last /omp style table/omp
Last active /omp style is pair_style table/omp
Step          Temp          E_pair         E_mol          TotEng         Press
600000   0.2909844     -0.24891706     0             -0.20717126    -0.0037651672
Loop time of 31.3382 on 8 procs for 50000 steps with 4590 atoms

# Introduce deformation
fix shear all deform 1 xy erate 0.02 remap x flip yes

# Re-run deformation
timestep 0.001
run 600000
Hybrid pair style last /omp style table/omp
Last active /omp style is pair_style table/omp
Step          Temp          E_pair         E_mol          TotEng         Press          Volume
650000   0.28900724    -0.2520535      0             -0.21059135     0.0066580536   7996.5685
Averages over the last 31 of 61 rows, steps 950000 to 1250000:
Temp E_pair E_mol TotEng Press Volume
0.291541 -0.24461 0 -0.202784 -1.2237e+07 7996.57
Loop time of 385.53 on 8 procs for 600000 steps with 4590 atoms

# Stop deformation
unfix shear

# Relax time
run 100000
Hybrid pair style last /omp style table/omp
Last active /omp style is pair_style table/omp
Step          Temp          E_pair         E_mol          TotEng         Press
1250000   0.28407656    -0.24561301     0             -0.20485823    -0.014915304
Averages over the last 6 of 11 rows, steps 1300000 to 1350000:
Temp E_pair E_mol TotEng Press
0.286527 -0.249569 0 -0.208462 -612840
Loop time of 60.6646 on 8 procs for 100000 steps with 4590 atoms

# Introduce deformation
fix shear all deform 1 xy erate 0.02 remap x flip yes

# Re-run deformation
timestep 0.001
run 600000
Hybrid pair style last /omp style table/omp
Last active /omp style is pair_style table/omp
Step          Temp          E_pair         E_mol          TotEng         Press          Volume
1350000   0.28240005    -0.25248153     0             -0.21196727    -0.022337166    7996.5685
Averages over the last 31 of 61 rows, steps 1650000 to 1950000:
Temp E_pair E_mol TotEng Press Volume
0.292115 -0.24946 0 -0.207552 -2.69747e+07 7996.57
Loop time of 381.986 on 8 procs for 600000 steps with 4590 atoms

# Stop deformation
unfix shear

# Relax time
run 200000
Hybrid pair style last /omp style table/omp
Last active /omp style is pair_style table/omp
Step          Temp          E_pair         E_mol          TotEng         Press
1950000   0.29006696    -0.24699501     0             -0.20538083    -0.0324652
Averages over the last 11 of 21 rows, steps 2050000 to 2150000:
Temp E_pair E_mol TotEng Press
0.292013 -0.25459 0 -0.212696 -2.67809e+06
Loop time of 124.496 on 8 procs for 200000 steps with 4590 atoms

# Introduce deformation
fix shear all deform 1 xy erate 0.02 remap x flip yes

# Re-run deformation
timestep 0.001
run 600000
Hybrid pair style last /omp style table/omp
Last active /omp style is pair_style table/omp
Step          Temp          E_pair         E_mol          TotEng         Press          Volume
2150000   0.30150825    -0.25381892     0             -0.21056332    -0.011421376    7996.5685
Averages over the last 31 of 61 rows, steps 2450000 to 2750000:
Temp E_pair E_mol TotEng Press Volume
0.292195 -0.248663 0 -0.206744 -1.55108e+07 7996.57
Loop time of 384.504 on 8 procs for 600000 steps with 4590 atoms

# Stop deformation
unfix shear

# Relax time
run 400000
Hybrid pair style last /omp style table/omp
Last active /omp style is pair_style table/omp
Step          Temp          E_pair         E_mol          TotEng         Press
2750000   0.29255185    -0.24661502     0             -0.20464435     0.044509739
Averages over the last 21 of 41 rows, steps 2950000 to 3150000:
Temp E_pair E_mol TotEng Press
0.28973 -0.254617 0 -0.213051 -1.2232e+07
Loop time of 247.953 on 8 procs for 400000 steps with 4590 atoms
