LAMMPS (2 Aug 2023 - Update 3)
Loaded 1 plugins from F:\LAMMPS\LAMMPS 64-bit 2Aug2023\plugins
# Script to create a Polymer using Patchy Particles (PP)
# Types of Particles:
#   Cross linker:   PPA
#   Monomer:        PPB

# Initialization
units lj
dimension 3
boundary p p p

# Styles of atoms and that stuff
atom_style bond
bond_style zero nocoeff
pair_style hybrid/overlay lj/cut 1.12 sw threebody off
newton on

# Varaibles
variable L equal 2
variable NCL equal 5
variable NMO equal 10
variable seed1 equal 1234
variable seed2 equal 4321
variable seed3 equal 3124
variable steps equal 250000

# Create simulaiton box
region simulation_box block -$L $L -$L $L -$L $L
region simulation_box block -2 $L -$L $L -$L $L
region simulation_box block -2 2 -$L $L -$L $L
region simulation_box block -2 2 -2 $L -$L $L
region simulation_box block -2 2 -2 2 -$L $L
region simulation_box block -2 2 -2 2 -2 $L
region simulation_box block -2 2 -2 2 -2 2
# N-atom-types region-ID keyword value Is necesesary the extra/special/per/atom (# of special neighbors per atom)
create_box 4 simulation_box     bond/types 1     extra/bond/per/atom 4     extra/special/per/atom 5
Created orthogonal box = (-2 -2 -2) to (2 2 2)

# Atom types
mass 1 1.0      # CL
mass 2 1.0      # MO
mass 3 0.5      # PA
mass 4 0.5      # PB

# Coefficients
bond_coeff * nocoeff
pair_coeff 1 1 lj/cut 1.0 1.0 1.12 # i-type j-type pair-style eps sigma cutoff
pair_coeff 2 2 lj/cut 1.0 1.0 1.12 # i-type j-type pair-style eps sigma cutoff
pair_coeff 1 2 lj/cut 1.0 1.0 1.12 # i-type j-type pair-style eps sigma cutoff
pair_coeff 1 3 none
pair_coeff 1 4 none
pair_coeff 2 3 none
pair_coeff 2 4 none
pair_coeff 3 4 sw Patchy2.ws NULL NULL PA PB # i-type j-type pair-style
  disabling sw potential three-body terms
pair_coeff 3 3 sw Patchy2.ws NULL NULL PA PA
pair_coeff 4 4 sw Patchy2.ws NULL NULL PB PB # i-type j-type eps sigma cutoff wca

pair_modify shift yes

# Molecules
molecule CL molecule.patchy.CL
Read molecule template CL:
  1 molecules
  0 fragments
  5 atoms with max type 3
  4 bonds with max type 1
  0 angles with max type 0
  0 dihedrals with max type 0
  0 impropers with max type 0
molecule MO molecule.patchy.MO
Read molecule template MO:
  1 molecules
  0 fragments
  3 atoms with max type 4
  2 bonds with max type 1
  0 angles with max type 0
  0 dihedrals with max type 0
  0 impropers with max type 0

# Introduce the molecules
# ID style args keyword arg
region spawn_box block -$L $L -$L $L -$L $L
region spawn_box block -2 $L -$L $L -$L $L
region spawn_box block -2 2 -$L $L -$L $L
region spawn_box block -2 2 -2 $L -$L $L
region spawn_box block -2 2 -2 2 -$L $L
region spawn_box block -2 2 -2 2 -2 $L
region spawn_box block -2 2 -2 2 -2 2

# create_atoms type style args keyword values
# style_random: N seed region-ID
# keyword_mol: template-ID seed
# keyword_overlap: overlap value = only insert if at least this distance from all existing atoms
# keyword_maxtry: maxtry value = number of attempts to insert a particle before failure
create_atoms 0 random 5 1234 spawn_box mol CL 1234 overlap 0.5 maxtry 5000
Created 25 atoms
create_atoms 0 random 10 4321 spawn_box mol MO 4321 overlap 0.5 maxtry 5000
Created 30 atoms

# Create patchy particles
group CrossLinker type 1 3
25 atoms in group CrossLinker
group Monomer type 2 4
30 atoms in group Monomer
  5 rigid bodies with 25 atoms
  0.46400431 = max distance from body owner to body atom
  10 rigid bodies with 30 atoms
  0.5 = max distance from body owner to body atom

# Neighbor list
neighbor 0.3 bin # extra-distance style
neigh_modify exclude molecule/intra CrossLinker
neigh_modify exclude molecule/intra Monomer

fix langevinFix all langevin 0.05 0.05 10000.0 12345 # ID group-ID langevin Tstart Tstop damp seed

thermo 10000

# COMPUTES

# Compute global kinetic and potential energy and temperature
compute t all temp
compute ep all pe
compute ek all ke
#compute eplj1 all pair lj/cut 1 epair
#compute epsw1 all pair sw 1 epair

# Compute Cluster sizes
# compute ID group-ID cluster/atom cutoff
compute cluster all aggregate/atom 0.625
# compute ID group-ID chunk/atom style args keyword value
compute cc1 all chunk/atom c_cluster compress yes pbc yes
# compute ID group-ID property/chunk chunkID input1 input2
compute size all property/chunk cc1 count

# DUMPS and FIXES

# Save atom positions
dump dumpID all atom 100 info/patchyParticles_cleanPP.dumpf
dump_modify dumpID pbc yes # remap atoms via periodic boundary conditions
dump dumpCID all custom 100 info/patchyParticlesCluster_cleanPP.dumpf id type mol xs ys zs c_cluster
dump_modify dumpCID pbc yes # remap atoms via periodic boundary conditions

# Write dump file of the last configuration
dump dumpNew all custom 250000 newdata.dumpf id type mol xs ys zs c_cluster
dump_modify dumpNew delay 250000

# Save global energies and temperature
group Energy empty
0 atoms in group Energy
fix fixEng Energy ave/time 1 1 1 c_t c_ep c_ek file info/energy_cleanPP.fixf

# Save the histogram of cluster sizes
#fix ID group-ID style Nevery Nrepeat Nfreq lo hi Nbin value1 value2
fix 1 all ave/time 1 1 1 c_size file info/sizeCluster_cleanPP.fixf mode vector

# RUN SIMULATION

timestep 0.001
run 250000
Step          Temp          E_pair         E_mol          TotEng         Press
0   0              0.00086506628  0              0.00086506628 -0.024404555
Averages over the last 13 of 26 rows, steps 130000 to 250000:
Temp E_pair E_mol TotEng Press
0.125452 -0.087364 0 0.00045254 0.041337
Loop time of 9.57772 on 1 procs for 250000 steps with 55 atoms

# PREPARE THE WRITE INFO

# Delete the Patches
group Patches type 3 4
40 atoms in group Patches
delete_atoms group Patches compress yes bond yes mol no
Deleted 40 atoms, new total = 15
Deleted 40 bonds, new total = 0

# write data file
write_data data.cleanPP
System init for write_data ...
