LAMMPS (27 Jun 2024)
package omp 0
using multi-threaded neighbor list subroutines
units lj
dimension 3
boundary p p p

atom_style bond
bond_style zero nocoeff
pair_style hybrid/overlay/omp zero 0.0 lj/cut/omp 1.12 table/omp linear 5000000 threebody/table
newton on

region simulation_box block -10 10 -10 10 -10 10
create_box 4 simulation_box bond/types 1 extra/bond/per/atom 4 extra/special/per/atom 5
Created orthogonal box = (-10 -10 -10) to (10 10 10)

mass 1 1.0
mass 2 1.0
mass 3 0.5
mass 4 0.5

bond_coeff * nocoeff
pair_coeff 1 3 zero
pair_coeff 1 4 zero
pair_coeff 2 3 zero
pair_coeff 2 4 zero
pair_coeff 3 3 zero
pair_coeff 1 1 lj/cut/omp 1.0 1.0 1.12
pair_coeff 2 2 lj/cut/omp 1.0 1.0 1.12
pair_coeff 1 2 lj/cut/omp 1.0 1.0 1.12
pair_modify shift yes
pair_coeff 3 4 table/omp pachTab.table POT 0.6
Reading pair table potential file pachTab.table with DATE: 2024-07-08
pair_coeff 4 4 table/omp pachTab.table POT 0.6
Reading pair table potential file pachTab.table with DATE: 2024-07-08
pair_coeff * * threebody/table swapMech.3b NULL NULL PA PB

molecule CL molecule.patchy.CL
Read molecule template CL:
# Patchy Cross-Linker
  1 molecules
  0 fragments
  5 atoms with max type 3
  4 bonds with max type 1
  0 angles with max type 0
  0 dihedrals with max type 0
  0 impropers with max type 0
molecule MO molecule.patchy.MO
Read molecule template MO:
# Patchy Monomer
  1 molecules
  0 fragments
  3 atoms with max type 4
  2 bonds with max type 1
  0 angles with max type 0
  0 dihedrals with max type 0
  0 impropers with max type 0

region spawn_box block -10 10 -10 10 -10 10

create_atoms 0 random 50 34512 spawn_box mol CL 34512 overlap 1.0 maxtry 5000
Created 250 atoms
create_atoms 0 random 450 31245 spawn_box mol MO 31245 overlap 1.0 maxtry 5000
Created 1350 atoms

group CrossLinker type 1 3
250 atoms in group CrossLinker
group Monomer type 2 4
1350 atoms in group Monomer
group Patches type 3 4
1100 atoms in group Patches
group CL type 1
50 atoms in group CL
group MO type 2
450 atoms in group MO
group CM type 1 2
500 atoms in group CM
group Energy empty
0 atoms in group Energy

fix pCL CrossLinker rigid/small/omp molecule
  50 rigid bodies with 250 atoms
  0.46400431 = max distance from body owner to body atom
fix pMO Monomer rigid/small/omp molecule
  450 rigid bodies with 1350 atoms
  0.5 = max distance from body owner to body atom

neighbor 1.8 bin
neigh_modify exclude molecule/intra CrossLinker
neigh_modify exclude molecule/intra Monomer

fix langevinFix all langevin 0.05 0.05 0.5 12345
thermo 1000

compute t all temp
compute ep all pe
compute ek all ke
compute cluster all aggregate/atom 0.6
compute cc1 all chunk/atom c_cluster compress yes pbc yes
compute size all property/chunk cc1 count
compute vorCompSimple CM voronoi/atom only_group
compute vorCompHisto CM voronoi/atom only_group edge_histo 18 edge_threshold 0

dump dumpID all atom 1000 info/patchyParticles_assembly.dumpf
dump_modify dumpID pbc yes
dump dumpNew all custom 10000000 newdata_assembly.dumpf id type mol x y z c_cluster
dump_modify dumpNew delay 10000000
dump dumpVor CM custom 10000000 info/voronoiSimple_assembly.dumpf c_vorCompSimple[1] c_vorCompSimple[2]
dump_modify dumpVor delay 10000000

fix fixvorHisto CM ave/time 1 1 10000000 c_vorCompHisto file info/vorHisto_assembly.fixf mode vector
fix fixEng Energy ave/time 1 1 10 c_t c_ep c_ek file info/energy_assembly.fixf
fix 1 all ave/time 1 1 10000000 c_size file info/sizeCluster_assembly.fixf mode vector

timestep 0.005
 run 10000000
Hybrid pair style last /omp style table/omp
Last active /omp style is pair_style table/omp
Step          Temp          E_pair         E_mol          TotEng         Press
0   0              4.7648482e-05  0              4.7648482e-05  0.0023423259
Averages over the last 5001 of 10001 rows, steps 5000000 to 10000000:
Temp E_pair E_mol TotEng Press
0.0501727 -0.308514 0 -0.26858 0.00012932
Loop time of 1762.56 on 4 procs for 10000000 steps with 1600 atoms
