LAMMPS (27 Jun 2024)
package omp 0
using multi-threaded neighbor list subroutines
# Script to create a shear deformationgiven a data file

units lj
dimension 3
boundary p p p

# Styles of atoms and that stuff
atom_style bond
bond_style zero nocoeff
pair_style hybrid/overlay/omp zero 0.0 lj/cut/omp 1.12 table/omp linear 5000000 threebody/table
newton on

read_data data.hydrogel extra/bond/per/atom 4 extra/special/per/atom 5
Reading data file ...
  orthogonal box = (-10.69 -10.69 -10.69) to (10.69 10.69 10.69)
  reading atoms ...
  6400 atoms
  reading velocities ...
  6400 velocities
  scanning bonds ...
  orthogonal box = (-10.69 -10.69 -10.69) to (10.69 10.69 10.69)
  reading bonds ...
  4400 bonds
Finding 1-2 1-3 1-4 neighbors ...
     4 = max # of 1-2 neighbors
     3 = max # of 1-3 neighbors
     3 = max # of 1-4 neighbors
     9 = max # of special neighbors

change_box all triclinic
Changing box ...
  triclinic box = (-10.69 -10.69 -10.69) to (10.69 10.69 10.69) with tilt (0 0 0)

# Coefficients
include potential.in
bond_coeff * nocoeff
pair_coeff 1 3 zero
pair_coeff 1 4 zero
pair_coeff 2 3 zero
pair_coeff 2 4 zero
pair_coeff 3 3 zero
pair_coeff 1 1 lj/cut/omp 1.0 1.0 1.12 # i-type j-type pair-style eps sigma cutoff
pair_coeff 2 2 lj/cut/omp 1.0 1.0 1.12 # i-type j-type pair-style eps sigma cutoff
pair_coeff 1 2 lj/cut/omp 1.0 1.0 1.12 # i-type j-type pair-style eps sigma cutoff
pair_modify shift yes
pair_coeff 3 4 table/omp sysFiles/pachTab.table POT 0.6 #0.75
Reading pair table potential file sysFiles/pachTab.table with DATE: 2024-07-08
pair_coeff 4 4 table/omp sysFiles/pachTab.table POT 0.6 #0.75
Reading pair table potential file sysFiles/pachTab.table with DATE: 2024-07-08
pair_coeff * * threebody/table swapMech.3b NULL NULL PA PB

# Molecules
include molDeform.in
molecule CL sysFiles/molecule.patchy.CL
Read molecule template CL:
# Patchy Cross-Linker
  1 molecules
  0 fragments
  5 atoms with max type 3
  4 bonds with max type 1
  0 angles with max type 0
  0 dihedrals with max type 0
  0 impropers with max type 0
molecule MO sysFiles/molecule.patchy.MO
Read molecule template MO:
# Patchy Monomer
  1 molecules
  0 fragments
  3 atoms with max type 4
  2 bonds with max type 1
  0 angles with max type 0
  0 dihedrals with max type 0
  0 impropers with max type 0

# Create patchy particles
group CrossLinker type 1 3
1000 atoms in group CrossLinker
group Monomer type 2 4
5400 atoms in group Monomer
group Patches type 3 4
4400 atoms in group Patches
group CL type 1
200 atoms in group CL
group MO type 2
1800 atoms in group MO
group CM type 1 2
2000 atoms in group CM
  200 rigid bodies with 1000 atoms
  0.46400431 = max distance from body owner to body atom
  1800 rigid bodies with 5400 atoms
  0.5 = max distance from body owner to body atom

# Neighbor list
neighbor 1.8 bin # extra-distance style
neigh_modify exclude molecule/intra CrossLinker
neigh_modify exclude molecule/intra Monomer

fix BrDy all rigid/nve/small molecule langevin 0.05 0.05 0.25 12345 # Brownian Dynamics: langevin + nve
  2000 rigid bodies with 6400 atoms
  0.5 = max distance from body owner to body atom
fix_modify BrDy virial no

thermo 10000

# Compute global kinetic and potential energy and temperature
compute t all temp
compute ep all pe
compute ek all ke
compute stressVirial all pressure t ke pair
variable tilt equal v_shear_rate*step*dt

# DUMPS and FIXES

# Save atom positions
dump dumpID all atom 500 info/patchyParticles_shear.dumpf
dump_modify dumpID pbc yes # remap atoms via periodic boundary conditions

# Save global energies and temperature
group Energy empty
0 atoms in group Energy
fix fixEng Energy ave/time 1 10 10 c_t c_ep c_ek file info/energy_shear.fixf

# Save Stress tensor
group Stress empty
0 atoms in group Stress
fix fixStress5 Stress ave/time 1 1000 1000 v_tilt c_stressVirial[*] file info/stressVirial_shear.fixf

# RUN SIMULATION

# Introduce deformation
fix shear all deform 1 xy erate 0.02 remap x flip yes

# Run deformation
timestep 0.001
run 600000

CITE-CITE-CITE-CITE-CITE-CITE-CITE-CITE-CITE-CITE-CITE-CITE-CITE

Your simulation uses code contributions which should be cited:

- Type Label Framework: https://doi.org/10.1021/acs.jpcb.3c08419

@Article{Gissinger24,
 author = {Jacob R. Gissinger, Ilia Nikiforov, Yaser Afshar, Brendon Waters, Moon-ki Choi, Daniel S. Karls, Alexander Stukowski, Wonpil Im, Hendrik Heinz, Axel Kohlmeyer, and Ellad B. Tadmor},
 title = {Type Label Framework for Bonded Force Fields in LAMMPS},
 journal = {J. Phys. Chem. B},
 year =    2024,
 volume =  128,
 number =  13,
 pages =   {3282â€“-3297}
}

CITE-CITE-CITE-CITE-CITE-CITE-CITE-CITE-CITE-CITE-CITE-CITE-CITE

Hybrid pair style last /omp style table/omp
Last active /omp style is pair_style table/omp
Step          Temp          E_pair         E_mol          TotEng         Press          Volume
0   0.44329893    -0.30966241     0             -0.26820703    -0.01765922     9772.8921
Averages over the last 31 of 61 rows, steps 300000 to 600000:
Temp E_pair E_mol TotEng Press Volume
0.431453 -0.302566 0 -0.262218 -2.96095e+07 9772.89
Loop time of 520.638 on 8 procs for 600000 steps with 6400 atoms

# Stop deformation
unfix shear

# Relax time
run 150000
Hybrid pair style last /omp style table/omp
Last active /omp style is pair_style table/omp
Step          Temp          E_pair         E_mol          TotEng         Press
600000   0.4370522     -0.30306626     0             -0.26219505    -0.025976931
Averages over the last 8 of 16 rows, steps 680000 to 750000:
Temp E_pair E_mol TotEng Press
0.425817 -0.308846 0 -0.269026 -1.022e+06
Loop time of 128.716 on 8 procs for 150000 steps with 6400 atoms

# Introduce deformation
fix shear all deform 1 xy erate 0.02 remap x flip yes

# Re-run deformation
timestep 0.001
run 600000
Hybrid pair style last /omp style table/omp
Last active /omp style is pair_style table/omp
Step          Temp          E_pair         E_mol          TotEng         Press          Volume
750000   0.42099581    -0.31140551     0             -0.27203582     0.013331748    9772.8921
Averages over the last 31 of 61 rows, steps 1050000 to 1350000:
Temp E_pair E_mol TotEng Press Volume
0.428765 -0.302866 0 -0.26277 -2.23761e+07 9772.89
Loop time of 528.359 on 8 procs for 600000 steps with 6400 atoms

# Stop deformation
unfix shear

# Relax time
run 300000
Hybrid pair style last /omp style table/omp
Last active /omp style is pair_style table/omp
Step          Temp          E_pair         E_mol          TotEng         Press
1350000   0.42854402    -0.30527156     0             -0.265196      -0.021166993
Averages over the last 16 of 31 rows, steps 1500000 to 1650000:
Temp E_pair E_mol TotEng Press
0.428773 -0.30709 0 -0.266993 -3.93434e+06
Loop time of 250.924 on 8 procs for 300000 steps with 6400 atoms

# Introduce deformation
fix shear all deform 1 xy erate 0.02 remap x flip yes

# Re-run deformation
timestep 0.001
run 600000
Hybrid pair style last /omp style table/omp
Last active /omp style is pair_style table/omp
Step          Temp          E_pair         E_mol          TotEng         Press          Volume
1650000   0.44129889    -0.30335791     0             -0.26208957     0.0090279157   9772.8921
Averages over the last 31 of 61 rows, steps 1950000 to 2250000:
Temp E_pair E_mol TotEng Press Volume
0.428996 -0.304255 0 -0.264137 -2.6907e+07 9772.89
Loop time of 515.485 on 8 procs for 600000 steps with 6400 atoms

# Stop deformation
unfix shear

# Relax time
run 600000
Hybrid pair style last /omp style table/omp
Last active /omp style is pair_style table/omp
Step          Temp          E_pair         E_mol          TotEng         Press
2250000   0.42132619    -0.30554922     0             -0.26614864    -0.014389424
Averages over the last 31 of 61 rows, steps 2550000 to 2850000:
Temp E_pair E_mol TotEng Press
0.428193 -0.309585 0 -0.269543 -1.58884e+07
Loop time of 491.848 on 8 procs for 600000 steps with 6400 atoms

# Introduce deformation
fix shear all deform 1 xy erate 0.02 remap x flip yes

# Re-run deformation
timestep 0.001
run 600000
Hybrid pair style last /omp style table/omp
Last active /omp style is pair_style table/omp
Step          Temp          E_pair         E_mol          TotEng         Press          Volume
2850000   0.43804232    -0.3108582      0             -0.2698944      0.011371245    9772.8921
Averages over the last 31 of 61 rows, steps 3150000 to 3450000:
Temp E_pair E_mol TotEng Press Volume
0.429837 -0.30304 0 -0.262843 -2.77748e+07 9772.89
Loop time of 513.893 on 8 procs for 600000 steps with 6400 atoms

# Stop deformation
unfix shear

# Relax time
run 1200000
Hybrid pair style last /omp style table/omp
Last active /omp style is pair_style table/omp
Step          Temp          E_pair         E_mol          TotEng         Press
3450000   0.43935352    -0.30631832     0             -0.2652319      0.012250502
Averages over the last 61 of 121 rows, steps 4050000 to 4650000:
Temp E_pair E_mol TotEng Press
0.4287 -0.313067 0 -0.272976 -2.17283e+07
Loop time of 980.061 on 8 procs for 1200000 steps with 6400 atoms
