LAMMPS (2 Aug 2023 - Update 3)
Loaded 1 plugins from F:\LAMMPS\LAMMPS 64-bit 2Aug2023\plugins
# Script to create a Polymer using Patchy Particles (PP)
# Types of Particles:
#   Cross linker:   PPA
#   Monomer:        PPB

# Initialization
units lj
dimension 3
boundary p p p

# Types of atoms and that stuff
atom_style full
bond_style zero nocoeff
pair_style hybrid lj/cut 2.5 sw threebody off zero 2.5

# Get data for box and particles
read_data data.patchyP1.lmp group CL1
Reading data file ...
  orthogonal box = (-5 -5 -5) to (5 5 5)
  reading atoms ...
  5 atoms
  scanning bonds ...
  reading bonds ...
  4 bonds
Finding 1-2 1-3 1-4 neighbors ...
     4 = max # of 1-2 neighbors
     3 = max # of 1-3 neighbors
     3 = max # of 1-4 neighbors
     4 = max # of special neighbors
read_data data.patchyP2.lmp add append group Mo1
Reading data file ...
  orthogonal box = (-5 -5 -5) to (5 5 5)
  reading atoms ...
  3 atoms
  scanning bonds ...
  reading bonds ...
  2 bonds
Finding 1-2 1-3 1-4 neighbors ...
     4 = max # of 1-2 neighbors
     3 = max # of 1-3 neighbors
     3 = max # of 1-4 neighbors
     4 = max # of special neighbors

displace_atoms Mo1 move 0.0 0.0 3.0 units box
Displacing atoms ...

# Set the patchy particle interaction
fix CLfix CL1 rigid single
  1 rigid bodies with 5 atoms
fix Mofix Mo1 rigid single
  1 rigid bodies with 3 atoms

pair_coeff 3 4 sw Patchy.ws NULL NULL PA PB # i-type j-type pair-style
  disabling sw potential three-body terms
pair_coeff 4 4 sw Patchy.ws NULL NULL PB PB # i-type j-type pair-style
pair_coeff 1 1 zero 2.24
pair_coeff 2 2 zero 2.24
pair_coeff 1 2 lj/cut 1.0 1.0 1.12 # i-type j-type pair-style eps sigma cutoff
pair_coeff 3 3 zero 2.24
pair_coeff 1 3 zero 1.68
pair_coeff 1 4 zero 1.68
pair_coeff 2 3 zero 1.68
pair_coeff 2 4 zero 1.68
#pair_coeff 3 4 sw 3 Patchy.ws PA PB # i-type j-type pair-style
#pair_coeff 4 4 sw 3 Patchy.ws PB PB # i-type j-type eps sigma cutoff wca
#pair_coeff 1 2 sw Patchy.ws CL MO NULL NULL# i-type j-type pair-style

# Neighbor list
neighbor 0.3 bin # extra-distance style
#neigh_modify delay 5

minimize 1.0e-4 1.0e-6 1000 10000 # etol ftol maxiter maxeval
Step          Temp          E_pair         E_mol          TotEng         Press
0   0              0              0              0              0
Loop time of 5.3e-05 on 1 procs for 1 steps with 8 atoms

Minimization stats:
  Stopping criterion = search direction is not downhill
  Energy initial, next-to-last, final =
  Force two-norm initial, final = 0 0
  Force max component initial, final = 0 0
  Final line search alpha, max atom move = 0 0
  Iterations, force evaluations = 1 0

fix 1 all langevin 1.0 1.0 50.0 12345
fix 2 all nve

thermo 50
compute t all temp
compute ep all pe
compute ek all ke
compute tm all momentum

dump 1 all atom 50 dump.patchy_pairs1_ng

timestep 0.005
run 100000
Step          Temp          E_pair         E_mol          TotEng         Press
1   0              0              0              0              0
Averages over the last 1001 of 2002 rows, steps 50050 to 100001:
Temp E_pair E_mol TotEng Press
1.12395 -0.000458844 0 0.561516 0.00221671
Loop time of 0.589227 on 1 procs for 100000 steps with 8 atoms
