LAMMPS (27 Jun 2024)
package omp 0
using multi-threaded neighbor list subroutines
# Script to create a shear deformationgiven a data file

units lj
dimension 3
boundary p p p

# Styles of atoms and that stuff
atom_style bond
bond_style zero nocoeff
#pair_style hybrid/overlay/omp zero 0.0 lj/cut/omp 1.12 table/omp linear 5000000 threebody/table
pair_style hybrid/overlay/omp zero 0.0 table/omp linear 1000 table/omp linear 5000000 threebody/table
newton on

read_data data.hydrogel extra/bond/per/atom 4 extra/special/per/atom 5
Reading data file ...
  orthogonal box = (-9.99857 -9.99857 -9.99857) to (9.99857 9.99857 9.99857)
  reading atoms ...
  4590 atoms
  reading velocities ...
  4590 velocities
  scanning bonds ...
  orthogonal box = (-9.99857 -9.99857 -9.99857) to (9.99857 9.99857 9.99857)
  reading bonds ...
  3090 bonds
Finding 1-2 1-3 1-4 neighbors ...
     4 = max # of 1-2 neighbors
     3 = max # of 1-3 neighbors
     3 = max # of 1-4 neighbors
     9 = max # of special neighbors

change_box all triclinic
Changing box ...
  triclinic box = (-9.99857 -9.99857 -9.99857) to (9.99857 9.99857 9.99857) with tilt (0 0 0)

# Coefficients
include potential.in
bond_coeff * nocoeff
pair_coeff 1 3 zero
pair_coeff 1 4 zero
pair_coeff 2 3 zero
pair_coeff 2 4 zero
pair_coeff 3 3 zero
pair_coeff 1 1 table/omp 1 sysFiles/wcaTab.table POT 1.12
Reading pair table potential file sysFiles/wcaTab.table with DATE: 2024-09-27
pair_coeff 2 2 table/omp 1 sysFiles/wcaTab.table POT 1.12
Reading pair table potential file sysFiles/wcaTab.table with DATE: 2024-09-27
pair_coeff 1 2 table/omp 1 sysFiles/wcaTab.table POT 1.12
Reading pair table potential file sysFiles/wcaTab.table with DATE: 2024-09-27
#pair_coeff 1 1 lj/cut/omp 1.0 1.0 1.12
#pair_coeff 2 2 lj/cut/omp 1.0 1.0 1.12
#pair_coeff 1 2 lj/cut/omp 1.0 1.0 1.12
pair_modify shift yes
pair_coeff 3 4 table/omp 2 sysFiles/pachTab.table POT 0.6 #0.75
Reading pair table potential file sysFiles/pachTab.table with DATE: 2024-07-08
pair_coeff 4 4 table/omp 2 sysFiles/pachTab.table POT 0.6 #0.75
Reading pair table potential file sysFiles/pachTab.table with DATE: 2024-07-08
pair_coeff * * threebody/table swapMech.3b NULL NULL PA PB

# Molecules
include molDeform.in
molecule CL sysFiles/molecule.patchy.CL
Read molecule template CL:
# Patchy Cross-Linker
  1 molecules
  0 fragments
  5 atoms with max type 3
  4 bonds with max type 1
  0 angles with max type 0
  0 dihedrals with max type 0
  0 impropers with max type 0
molecule MO sysFiles/molecule.patchy.MO
Read molecule template MO:
# Patchy Monomer
  1 molecules
  0 fragments
  3 atoms with max type 4
  2 bonds with max type 1
  0 angles with max type 0
  0 dihedrals with max type 0
  0 impropers with max type 0

# Create patchy particles
group CrossLinker type 1 3
225 atoms in group CrossLinker
group Monomer type 2 4
4365 atoms in group Monomer
group Patches type 3 4
3090 atoms in group Patches
group CL type 1
45 atoms in group CL
group MO type 2
1455 atoms in group MO
group PA type 3
180 atoms in group PA
group CM type 1 2
1500 atoms in group CM
  45 rigid bodies with 225 atoms
  0.46400431 = max distance from body owner to body atom
  1455 rigid bodies with 4365 atoms
  0.5 = max distance from body owner to body atom

# Neighbor list
neighbor 1.8 bin # extra-distance style
neigh_modify exclude molecule/intra CrossLinker
neigh_modify exclude molecule/intra Monomer

fix BrDy all rigid/nve/small molecule langevin 0.05 0.05 0.25 12345 # Brownian Dynamics: langevin + nve
  1500 rigid bodies with 4590 atoms
  0.5 = max distance from body owner to body atom
fix_modify BrDy virial no

thermo 10000

# Compute global kinetic and potential energy and temperature
compute t all temp
compute tCM CM temp
compute ep all pe
compute ek all ke
compute stressVirial all pressure t ke pair
variable tilt equal v_shear_rate*step*dt
compute blAll Patches pair table/omp 2 epair
compute blCl PA pair table/omp 2 epair

variable step equal step

# DUMPS and FIXES

# Save atom positions
dump dumpID all atom 500 info/dumps/shear/patchyParticles_shear_N0.dumpf
dump_modify dumpID pbc yes # remap atoms via periodic boundary conditions

# Save global energies and temperature
group Energy empty
0 atoms in group Energy
group BL1 empty
0 atoms in group BL1
group BL2 empty
0 atoms in group BL2
fix fixEng Energy ave/time 1 10 10 c_tCM c_ep c_ek c_t file info/energy_shear.fixf

fix fixBLg BL1 ave/time 1 10 10 c_blAll file info/bondlenPatch_shear.fixf
fix fixBLc BL2 ave/time 1 10 10 c_blCl file info/bondlenCL_shear.fixf

# Save Stress tensor
group Stress empty
0 atoms in group Stress
fix fixStress5 Stress ave/time 1 1000 1000 v_tilt c_stressVirial[*] file info/stressVirial_shear.fixf

# RUN SIMULATION

# Introduce deformation
fix shear all deform 1 xy erate 0.02 remap x flip yes

# Run deformation
timestep 0.001
run 600000

CITE-CITE-CITE-CITE-CITE-CITE-CITE-CITE-CITE-CITE-CITE-CITE-CITE

Your simulation uses code contributions which should be cited:

- Type Label Framework: https://doi.org/10.1021/acs.jpcb.3c08419

@Article{Gissinger24,
 author = {Jacob R. Gissinger, Ilia Nikiforov, Yaser Afshar, Brendon Waters, Moon-ki Choi, Daniel S. Karls, Alexander Stukowski, Wonpil Im, Hendrik Heinz, Axel Kohlmeyer, and Ellad B. Tadmor},
 title = {Type Label Framework for Bonded Force Fields in LAMMPS},
 journal = {J. Phys. Chem. B},
 year =    2024,
 volume =  128,
 number =  13,
 pages =   {3282â€“-3297}
}

CITE-CITE-CITE-CITE-CITE-CITE-CITE-CITE-CITE-CITE-CITE-CITE-CITE

Hybrid pair style last /omp style table/omp
Last active /omp style is pair_style table/omp
Step          Temp          E_pair         E_mol          TotEng         Press          Volume
0   0.35819419     1.3742944      0              1.4256824     -0.041033879    7996.5685
Averages over the last 31 of 61 rows, steps 300000 to 600000:
Temp E_pair E_mol TotEng Press Volume
0.413682 2.76715 0 2.8265 -2.55202e+07 7996.57
Loop time of 611.133 on 8 procs for 600000 steps with 4590 atoms

# Stop deformation
unfix shear

# Relax time
run 50000
Hybrid pair style last /omp style table/omp
Last active /omp style is pair_style table/omp
Step          Temp          E_pair         E_mol          TotEng         Press
600000   0.41614752     3.1813337      0              3.2410359      0.18087334
Loop time of 53.1095 on 8 procs for 50000 steps with 4590 atoms

# Introduce deformation
fix shear all deform 1 xy erate 0.02 remap x flip yes

# Re-run deformation
timestep 0.001
run 600000
Hybrid pair style last /omp style table/omp
Last active /omp style is pair_style table/omp
Step          Temp          E_pair         E_mol          TotEng         Press          Volume
650000   0.42909147     3.2243631      0              3.2859223     -0.080379692    7996.5685
Averages over the last 19 of 38 rows, steps 840000 to 1020000:
Temp E_pair E_mol TotEng Press Volume
0.447719 3.56733 0 3.63157 -2.89204e+07 7996.57
ERROR: Lost atoms: original 4590 current 4587 (src/thermo.cpp:494)
