LAMMPS (27 Jun 2024)
package omp 0
using multi-threaded neighbor list subroutines
# Input script of lammps that creates a hydrogel and then creates a shear deformation.

# Parallel configuration with pacakge OPENMP
# RUN: env OMP_NUM_THREADS=Nthreads mpirun -np NProcs lmp -sf omp -in

# Initialization
units lj
dimension 3
boundary p p p

# Styles of atoms and that stuff
atom_style bond
bond_style zero nocoeff
#pair_style hybrid/overlay/omp zero 0.0 lj/cut/omp 1.12 table/omp linear 5000000 threebody/table
pair_style hybrid/overlay/omp zero 0.0 table/omp linear 1000 table/omp linear 5000000 threebody/table
newton on

# Create simulaiton box
region simulation_box block -$L $L -$L $L -$L $L
region simulation_box block -9.99857 $L -$L $L -$L $L
region simulation_box block -9.99857 9.99857 -$L $L -$L $L
region simulation_box block -9.99857 9.99857 -9.99857 $L -$L $L
region simulation_box block -9.99857 9.99857 -9.99857 9.99857 -$L $L
region simulation_box block -9.99857 9.99857 -9.99857 9.99857 -9.99857 $L
region simulation_box block -9.99857 9.99857 -9.99857 9.99857 -9.99857 9.99857
# N-atom-types region-ID keyword value Is necesesary the extra/special/per/atom (# of special neighbors per atom)
create_box 4 simulation_box     bond/types 1     extra/bond/per/atom 4     extra/special/per/atom 5
Created orthogonal box = (-9.99857 -9.99857 -9.99857) to (9.99857 9.99857 9.99857)

# Atom types
mass 1 1.0      # CL
mass 2 1.0      # MO
mass 3 0.5      # PA
mass 4 0.5      # PB

# Coefficients
include potential.in
bond_coeff * nocoeff
pair_coeff 1 3 zero
pair_coeff 1 4 zero
pair_coeff 2 3 zero
pair_coeff 2 4 zero
pair_coeff 3 3 zero
pair_coeff 1 1 table/omp 1 sysFiles/wcaTab.table POT 1.12
Reading pair table potential file sysFiles/wcaTab.table with DATE: 2024-09-27
pair_coeff 2 2 table/omp 1 sysFiles/wcaTab.table POT 1.12
Reading pair table potential file sysFiles/wcaTab.table with DATE: 2024-09-27
pair_coeff 1 2 table/omp 1 sysFiles/wcaTab.table POT 1.12
Reading pair table potential file sysFiles/wcaTab.table with DATE: 2024-09-27
#pair_coeff 1 1 lj/cut/omp 1.0 1.0 1.12
#pair_coeff 2 2 lj/cut/omp 1.0 1.0 1.12
#pair_coeff 1 2 lj/cut/omp 1.0 1.0 1.12
#pair_modify shift yes
pair_coeff 3 4 table/omp 2 sysFiles/pachTab.table POT 0.6 #0.75
Reading pair table potential file sysFiles/pachTab.table with DATE: 2024-07-08
pair_coeff 4 4 table/omp 2 sysFiles/pachTab.table POT 0.6 #0.75
Reading pair table potential file sysFiles/pachTab.table with DATE: 2024-07-08
pair_coeff * * threebody/table swapMech.3b NULL NULL PA PB
#pair_coeff 3 4 threebody/table swapMech.3b NULL NULL PA PB
#pair_coeff 4 4 threebody/table swapMech.3b NULL NULL PB PB

# Molecules
include molecules.in
molecule CL sysFiles/molecule.patchy.CL
Read molecule template CL:
# Patchy Cross-Linker
  1 molecules
  0 fragments
  5 atoms with max type 3
  4 bonds with max type 1
  0 angles with max type 0
  0 dihedrals with max type 0
  0 impropers with max type 0
molecule MO sysFiles/molecule.patchy.MO
Read molecule template MO:
# Patchy Monomer
  1 molecules
  0 fragments
  3 atoms with max type 4
  2 bonds with max type 1
  0 angles with max type 0
  0 dihedrals with max type 0
  0 impropers with max type 0

# Introduce the molecules
# ID style args keyword arg
region spawn_box block -$L $L -$L $L -$L $L
region spawn_box block -9.99857 $L -$L $L -$L $L
region spawn_box block -9.99857 9.99857 -$L $L -$L $L
region spawn_box block -9.99857 9.99857 -9.99857 $L -$L $L
region spawn_box block -9.99857 9.99857 -9.99857 9.99857 -$L $L
region spawn_box block -9.99857 9.99857 -9.99857 9.99857 -9.99857 $L
region spawn_box block -9.99857 9.99857 -9.99857 9.99857 -9.99857 9.99857

# create_atoms type style args keyword values
# style_random: N seed region-ID
# keyword_mol: template-ID seed
# keyword_overlap: overlap value = only insert if at least this distance from all existing atoms
# keyword_maxtry: maxtry value = number of attempts to insert a particle before failure
create_atoms 0 random 45 1234 spawn_box mol CL 1234 overlap 1.0 maxtry 5000
Created 225 atoms
create_atoms 0 random 1455 4321 spawn_box mol MO 4321 overlap 1.0 maxtry 5000
Created 4365 atoms

# Create patchy particles
group CrossLinker type 1 3
225 atoms in group CrossLinker
group Monomer type 2 4
4365 atoms in group Monomer
group Patches type 3 4
3090 atoms in group Patches
group CL type 1
45 atoms in group CL
group MO type 2
1455 atoms in group MO
group PA type 3
180 atoms in group PA
group CM type 1 2
1500 atoms in group CM
  45 rigid bodies with 225 atoms
  0.46400431 = max distance from body owner to body atom
  1455 rigid bodies with 4365 atoms
  0.5 = max distance from body owner to body atom

# Neighbor list
neighbor 1.8 bin # extra-distance style
neigh_modify exclude molecule/intra CrossLinker
neigh_modify exclude molecule/intra Monomer

fix BrDy all rigid/nve/small molecule langevin 0.05 0.05 0.01 12345 # Brownian Dynamics: langevin + nve
  1500 rigid bodies with 4590 atoms
  0.5 = max distance from body owner to body atom

thermo 10000

# COMPUTES

# Compute global kinetic and potential energy and temperature
compute t all temp
compute tCM CM temp
compute ep all pe
compute ek all ke
compute wcaPair all pair table/omp 1 epair
compute patchPair all pair table/omp 2 epair
compute swapPair all pair threebody/table epair

#variable step equal step
#variable Ndump string $(step)

# DUMPS and FIXES

# Save atom positions
#write_dump all atom info/dumps/assembly/patchyParticles_assembly_*.dumpf
#modify every 10
dump dumpID all atom 10000 info/dumps/assembly/patchyParticles_assembly.*.dumpf
dump_modify dumpID pbc yes # remap atoms via periodic boundary conditions

# Save global energies and temperature
group Energy empty
0 atoms in group Energy
fix fixEng Energy ave/time 1 10 10 c_tCM c_ep c_ek c_t file info/energy_assembly.fixf

group PairE1 empty
0 atoms in group PairE1
group PairE2 empty
0 atoms in group PairE2
group PairE3 empty
0 atoms in group PairE3

fix fixwca PairE1 ave/time 1 10 10 c_wcaPair file info/wcaPair_assembly.fixf
fix fixpatch PairE2 ave/time 1 10 10 c_patchPair file info/patchPair_assembly.fixf
fix fixswap PairE3 ave/time 1 10 10 c_swapPair file info/swapPair_assembly.fixf

# RUN SIMULATION

timestep 0.001
run 3500000
Hybrid pair style last /omp style table/omp
Last active /omp style is pair_style table/omp
Step          Temp          E_pair         E_mol          TotEng         Press
0   0              0.0013355113   0              0.0013355113   0.010955052
Averages over the last 176 of 351 rows, steps 1750000 to 3500000:
Temp E_pair E_mol TotEng Press
0.301183 -0.309719 0 -0.26651 -1.69873e+08
Loop time of 2060.49 on 8 procs for 3500000 steps with 4590 atoms

# Write data for deformation

write_data data.hydrogel
System init for write_data ...
Hybrid pair style last /omp style table/omp
Last active /omp style is pair_style table/omp
