LAMMPS (27 Jun 2024)
package omp 0
using multi-threaded neighbor list subroutines
# Script to create a shear deformationgiven a data file

units lj
dimension 3
boundary p p p

# Styles of atoms and that stuff
atom_style bond
bond_style zero nocoeff
pair_style hybrid/overlay/omp zero 0.0 lj/cut/omp 1.12 table/omp linear 5000000 threebody/table
newton on

read_data data.hydrogel extra/bond/per/atom 4 extra/special/per/atom 5
Reading data file ...
  orthogonal box = (-18 -18 -18) to (18 18 18)
  reading atoms ...
  8000 atoms
  reading velocities ...
  8000 velocities
  scanning bonds ...
  orthogonal box = (-18 -18 -18) to (18 18 18)
  reading bonds ...
  5500 bonds
Finding 1-2 1-3 1-4 neighbors ...
     4 = max # of 1-2 neighbors
     3 = max # of 1-3 neighbors
     3 = max # of 1-4 neighbors
     9 = max # of special neighbors

change_box all triclinic
Changing box ...
  triclinic box = (-18 -18 -18) to (18 18 18) with tilt (0 0 0)

# Coefficients
include potential.in
bond_coeff * nocoeff
pair_coeff 1 3 zero
pair_coeff 1 4 zero
pair_coeff 2 3 zero
pair_coeff 2 4 zero
pair_coeff 3 3 zero
pair_coeff 1 1 lj/cut/omp 1.0 1.0 1.12 # i-type j-type pair-style eps sigma cutoff
pair_coeff 2 2 lj/cut/omp 1.0 1.0 1.12 # i-type j-type pair-style eps sigma cutoff
pair_coeff 1 2 lj/cut/omp 1.0 1.0 1.12 # i-type j-type pair-style eps sigma cutoff
pair_modify shift yes
pair_coeff 3 4 table/omp sysFiles/pachTab.table POT 0.6 #0.75
Reading pair table potential file sysFiles/pachTab.table with DATE: 2024-07-08
pair_coeff 4 4 table/omp sysFiles/pachTab.table POT 0.6 #0.75
Reading pair table potential file sysFiles/pachTab.table with DATE: 2024-07-08
pair_coeff * * threebody/table swapMech.3b NULL NULL PA PB

# Molecules
include molDeform.in
molecule CL sysFiles/molecule.patchy.CL
Read molecule template CL:
# Patchy Cross-Linker
  1 molecules
  0 fragments
  5 atoms with max type 3
  4 bonds with max type 1
  0 angles with max type 0
  0 dihedrals with max type 0
  0 impropers with max type 0
molecule MO sysFiles/molecule.patchy.MO
Read molecule template MO:
# Patchy Monomer
  1 molecules
  0 fragments
  3 atoms with max type 4
  2 bonds with max type 1
  0 angles with max type 0
  0 dihedrals with max type 0
  0 impropers with max type 0

# Create patchy particles
group CrossLinker type 1 3
1250 atoms in group CrossLinker
group Monomer type 2 4
6750 atoms in group Monomer
group Patches type 3 4
5500 atoms in group Patches
group CL type 1
250 atoms in group CL
group MO type 2
2250 atoms in group MO
group CM type 1 2
2500 atoms in group CM
  250 rigid bodies with 1250 atoms
  0.46400431 = max distance from body owner to body atom
  2250 rigid bodies with 6750 atoms
  0.5 = max distance from body owner to body atom

# Neighbor list
neighbor 1.8 bin # extra-distance style
neigh_modify exclude molecule/intra CrossLinker
neigh_modify exclude molecule/intra Monomer

fix BrDy all rigid/nve/small molecule langevin 0.05 0.05 0.25 12345 # Brownian Dynamics: langevin + nve
  2500 rigid bodies with 8000 atoms
  0.5 = max distance from body owner to body atom
fix_modify BrDy virial no

thermo 10000

# Compute global kinetic and potential energy and temperature
compute t all temp
compute ep all pe
compute ek all ke
compute stressVirial all pressure t ke pair
variable tilt equal v_shear_rate*step*dt

# DUMPS and FIXES

# Save atom positions
dump dumpID all atom 500 info/patchyParticles_shear.dumpf
dump_modify dumpID pbc yes # remap atoms via periodic boundary conditions

# Save global energies and temperature
group Energy empty
0 atoms in group Energy
fix fixEng Energy ave/time 1 10 10 c_t c_ep c_ek file info/energy_shear.fixf

# Save Stress tensor
group Stress empty
0 atoms in group Stress
fix fixStress5 Stress ave/time 1 1000 1000 v_tilt c_stressVirial[*] file info/stressVirial_shear.fixf

# RUN SIMULATION

# Introduce deformation
fix shear all deform 1 xy erate 0.02 remap x flip yes

# Run deformation
timestep 0.001
run 600000

CITE-CITE-CITE-CITE-CITE-CITE-CITE-CITE-CITE-CITE-CITE-CITE-CITE

Your simulation uses code contributions which should be cited:

- Type Label Framework: https://doi.org/10.1021/acs.jpcb.3c08419

@Article{Gissinger24,
 author = {Jacob R. Gissinger, Ilia Nikiforov, Yaser Afshar, Brendon Waters, Moon-ki Choi, Daniel S. Karls, Alexander Stukowski, Wonpil Im, Hendrik Heinz, Axel Kohlmeyer, and Ellad B. Tadmor},
 title = {Type Label Framework for Bonded Force Fields in LAMMPS},
 journal = {J. Phys. Chem. B},
 year =    2024,
 volume =  128,
 number =  13,
 pages =   {3282â€“-3297}
}

CITE-CITE-CITE-CITE-CITE-CITE-CITE-CITE-CITE-CITE-CITE-CITE-CITE

Hybrid pair style last /omp style table/omp
Last active /omp style is pair_style table/omp
Step          Temp          E_pair         E_mol          TotEng         Press          Volume
0   0.42761279    -0.30525908     0             -0.26525056     0.0020626354   46656
Averages over the last 31 of 61 rows, steps 300000 to 600000:
Temp E_pair E_mol TotEng Press Volume
0.427094 -0.299452 0 -0.259492 -1.33161e+07 46656
Loop time of 477.7 on 8 procs for 600000 steps with 8000 atoms

# Stop deformation
unfix shear

# Relax time
run 150000
Hybrid pair style last /omp style table/omp
Last active /omp style is pair_style table/omp
Step          Temp          E_pair         E_mol          TotEng         Press
600000   0.43029321    -0.30136651     0             -0.2611072     -0.017830183
Averages over the last 8 of 16 rows, steps 680000 to 750000:
Temp E_pair E_mol TotEng Press
0.428001 -0.29923 0 -0.259185 -248712
Loop time of 116.323 on 8 procs for 150000 steps with 8000 atoms

# Introduce deformation
fix shear all deform 1 xy erate 0.02 remap x flip yes

# Reun deformation
timestep 0.001
run 600000
Hybrid pair style last /omp style table/omp
Last active /omp style is pair_style table/omp
Step          Temp          E_pair         E_mol          TotEng         Press          Volume
750000   0.42890405    -0.29716087     0             -0.25703154    -0.010914336    46656
Averages over the last 31 of 61 rows, steps 1050000 to 1350000:
Temp E_pair E_mol TotEng Press Volume
0.428713 -0.300691 0 -0.26058 -1.05936e+07 46656
Loop time of 483.339 on 8 procs for 600000 steps with 8000 atoms

#variable cycle loop 2
#label runloop

# Introduce the deformation

#next cycle
#jump SELF runloop
