LAMMPS (29 Aug 2024)
package omp 0
using multi-threaded neighbor list subroutines
# Input Script of lammps for assembly simulation of polimeric network.

# Fco. Vazquez and Felipe Benavides

# Initialization
units lj
dimension 3
boundary p p p

# Styles of atoms and that stuff
atom_style bond
bond_style zero nocoeff
#pair_style hybrid/overlay/omp zero 0.0 lj/cut/omp 1.12 table/omp linear 5000000 threebody/table
pair_style hybrid/overlay/omp zero 0.0 lj/cut/omp 1.12 sw/omp threebody off threebody/table
newton on

# Create simulaiton box
region simulation_box block -$L $L -$L $L -$L $L
region simulation_box block -6.932675 $L -$L $L -$L $L
region simulation_box block -6.932675 6.932675 -$L $L -$L $L
region simulation_box block -6.932675 6.932675 -6.932675 $L -$L $L
region simulation_box block -6.932675 6.932675 -6.932675 6.932675 -$L $L
region simulation_box block -6.932675 6.932675 -6.932675 6.932675 -6.932675 $L
region simulation_box block -6.932675 6.932675 -6.932675 6.932675 -6.932675 6.932675
# N-atom-types region-ID keyword value Is necesesary the extra/special/per/atom (# of special neighbors per atom)
create_box 4 simulation_box     bond/types 1     extra/bond/per/atom 4     extra/special/per/atom 5
Created orthogonal box = (-6.932675 -6.932675 -6.932675) to (6.932675 6.932675 6.932675)

# Atom types
mass 1 1.0      # CL
mass 2 1.0      # MO
mass 3 0.5      # PA
mass 4 0.5      # PB

# Coefficients
include potential.in
# Script with the pair-wise interaction and bonds between particles

bond_coeff * nocoeff
pair_coeff 1 3 zero
pair_coeff 1 4 zero
pair_coeff 2 3 zero
pair_coeff 2 4 zero
pair_coeff 3 3 zero
pair_coeff 1 1 lj/cut/omp 1.0 1.0 1.12
pair_coeff 2 2 lj/cut/omp 1.0 1.0 1.12
pair_coeff 1 2 lj/cut/omp 1.0 1.0 1.12
pair_coeff 3 4 sw/omp sysFiles/patchyPot.sw NULL NULL PA PB
  disabling sw potential three-body terms
pair_coeff 4 4 sw/omp sysFiles/patchyPot.sw NULL NULL PA PB
pair_coeff * * threebody/table swapMech.3b NULL NULL PA PB
pair_modify pair lj/cut/omp shift yes

# Molecules
include molecules.in
# Script with all molecule information and create groups for computes

# Read the molecule information
molecule CL sysFiles/molecule.patchy.CL
Read molecule template CL:
# Patchy Cross-Linker
  1 molecules
  0 fragments
  5 atoms with max type 3
  4 bonds with max type 1
  0 angles with max type 0
  0 dihedrals with max type 0
  0 impropers with max type 0
molecule MO sysFiles/molecule.patchy.MO
Read molecule template MO:
# Patchy Monomer
  1 molecules
  0 fragments
  3 atoms with max type 4
  2 bonds with max type 1
  0 angles with max type 0
  0 dihedrals with max type 0
  0 impropers with max type 0

# Introduce the molecules
# ID style args keyword arg
region spawn_box block -$L $L -$L $L -$L $L
region spawn_box block -6.932675 $L -$L $L -$L $L
region spawn_box block -6.932675 6.932675 -$L $L -$L $L
region spawn_box block -6.932675 6.932675 -6.932675 $L -$L $L
region spawn_box block -6.932675 6.932675 -6.932675 6.932675 -$L $L
region spawn_box block -6.932675 6.932675 -6.932675 6.932675 -6.932675 $L
region spawn_box block -6.932675 6.932675 -6.932675 6.932675 -6.932675 6.932675

# create_atoms type style args keyword values
# style_random: N seed region-ID
# keyword_mol: template-ID seed
# keyword_overlap: overlap value = only insert if at least this distance from all existing atoms
# keyword_maxtry: maxtry value = number of attempts to insert a particle before failure
create_atoms 0 random 10 1234 spawn_box mol CL 1234 overlap 1.0 maxtry 5000
Created 50 atoms
create_atoms 0 random 490 4321 spawn_box mol MO 4321 overlap 1.0 maxtry 5000
Created 1470 atoms

# Create patchy particles
group CrossLinker type 1 3
50 atoms in group CrossLinker
group Monomer type 2 4
1470 atoms in group Monomer
group Patches type 3 4
1020 atoms in group Patches
group CL type 1
10 atoms in group CL
group MO type 2
490 atoms in group MO
group PA type 3
40 atoms in group PA
group CM type 1 2
500 atoms in group CM

# Fix rigid bodies
fix frCL CrossLinker rigid/small/omp molecule
  10 rigid bodies with 50 atoms
  0.46400431 = max distance from body owner to body atom
fix frMO Monomer rigid/small/omp molecule
  490 rigid bodies with 1470 atoms
  0.5 = max distance from body owner to body atom

# Neighbor list
neighbor 1.12 bin # extra-distance style
neigh_modify exclude molecule/intra CrossLinker
neigh_modify exclude molecule/intra Monomer

# COMPUTES

# Compute global kinetic and potential energy and temperature
compute t all temp
compute tCM CM temp
compute ep all pe
compute ek all ke
compute ekCM CM ke
compute stressVirial all pressure t ke pair
compute wcaPair all pair lj/cut/omp epair
compute patchPair all pair sw/omp epair
compute swapPair all pair threebody/table epair
compute disc CM displace/atom
compute daux CM chunk/atom type pbc yes
compute dis CM reduce/chunk daux sum c_disc[4]
#compute disM CM reduce/chunk daux sum c_disc[4]

# Energy minimization
minimize 1.0e-4 1.0e-6 1000 10000
Hybrid pair style last /omp style sw/omp
Last active /omp style is pair_style sw/omp
Step          Temp          E_pair         E_mol          TotEng         Press
0   0              0.00067516832  0              0.00067516832  0.00636608
Loop time of 0.000248412 on 4 procs for 1 steps with 1520 atoms

Minimization stats:
  Stopping criterion = quadratic factors are zero
  Energy initial, next-to-last, final =
  Force two-norm initial, final = 21.154727 21.154727
  Force max component initial, final = 6.3589627 6.3589627
  Final line search alpha, max atom move = 0.015725835 0.1
  Iterations, force evaluations = 1 2

# DUMPS and FIXES

thermo 500

# Save atom positions
dump dumpID all atom 500 info/dumps/assembly/patchyParticles_assembly.*.dumpf
dump_modify dumpID pbc yes # remap atoms via periodic boundary conditions

# Save global energies and temperature
group Energy empty
0 atoms in group Energy
fix fixEng Energy ave/time 1 10 10 c_t c_ep c_ek c_tCM file info/energy_assembly.fixf

group PairE1 empty
0 atoms in group PairE1
group PairE2 empty
0 atoms in group PairE2
group PairE3 empty
0 atoms in group PairE3

fix fixwca PairE1 ave/time 1 10 10 c_wcaPair file info/wcaPair_assembly.fixf
fix fixpatch PairE2 ave/time 1 10 10 c_patchPair file info/patchPair_assembly.fixf
fix fixswap PairE3 ave/time 1 10 10 c_swapPair file info/swapPair_assembly.fixf

# Save Atom displacement
group Displ empty
0 atoms in group Displ
fix fixDispl Displ ave/time 1 100000 100000 c_dis[1] c_dis[2] c_dis[3] c_dis[4] file info/cmdisplacement_assembly.fixf

# Save Stress tensor
group Stress empty
0 atoms in group Stress
fix fixStress5 Stress ave/time 1 100000 100000 c_stressVirial[*] file info/stressVirial_assembly.fixf

# RUN SIMULATION

# Brownian Dynamics using Langevin Thermostat

# Set the time integrator
fix VelVerlet all nve/omp # Use Velocity Verlet integrator
timestep 0.001

# First elevate the temperature
fix ThermoLng all langevin 0.0 0.05 10 12345
run 1000000
Hybrid pair style last /omp style sw/omp
Last active /omp style is pair_style sw/omp
Step          Temp          E_pair         E_mol          TotEng         Press
1   0              0.00067516832  0              0.00067516832  0.021123967
Averages over the last 1001 of 2002 rows, steps 500500 to 1000001:
Temp E_pair E_mol TotEng Press
0.239855 -0.154159 0 0.0436418 0.0302887
Loop time of 442.037 on 4 procs for 1000000 steps with 1520 atoms

unfix ThermoLng

# Now we let the system to create the polymeric network
fix ThermoLng all langevin 0.05 0.05 10 12345
run 1000000
Hybrid pair style last /omp style sw/omp
Last active /omp style is pair_style sw/omp
Step          Temp          E_pair         E_mol          TotEng         Press
1000001   0.25030259    -0.13739987     0              0.069017432    0.50242742
Averages over the last 1001 of 2002 rows, steps 1500500 to 2000001:
Temp E_pair E_mol TotEng Press
0.248668 -0.132362 0 0.0727072 0.0287921
Loop time of 450.382 on 4 procs for 1000000 steps with 1520 atoms

# Write data for deformation

write_data data.hydrogel
System init for write_data ...
Hybrid pair style last /omp style sw/omp
Last active /omp style is pair_style sw/omp
